 &time_control
 RUN_DAYS = 0,
 RUN_HOURS = 0,
 RUN_MINUTES = 0,
 RUN_SECONDS = 0,
  START_YEAR = 2017,
  START_MONTH = 05,
  START_DAY = 22,
  START_HOUR = 12,
 START_MINUTE = 00,   00,   00,
 START_SECOND = 00,   00,   00,
  END_YEAR = 2017,,
  END_MONTH = 05,
  END_DAY = 22,
  END_HOUR = 12,
 END_MINUTE = 00,   00,   00,
 END_SECOND = 00,   00,   00,
  INTERVAL_SECONDS = 10800,
 INPUT_FROM_FILE = .true.,.true.,.false.,
 HISTORY_INTERVAL = 60, 60, 60,
 FRAMES_PER_OUTFILE = 1, 1, 1,
 RESTART = .false.,
 RESTART_INTERVAL = 10000,
 IO_FORM_HISTORY = 2,
 IO_FORM_RESTART = 2,
 IO_FORM_INPUT = 2,
 IO_FORM_BOUNDARY = 2,
 DEBUG_LEVEL = 0,
/
 &domains
 TIME_STEP = 72,
 TIME_STEP_FRACT_NUM = 0,
 TIME_STEP_FRACT_DEN = 1,
  MAX_DOM = 1,
 s_we           =   1,  1,  1, 
 e_we            =  52,  70, 
 s_sn           =   1,  1,  1, 
 e_sn            =  70,  64, 
 s_vert         =   1,  1,  1, 
 e_vert          =  52,  52, 
 dx              =  4000,  1333.333, 
 dy              =  4000,  1333.333, 
 grid_id        = 1,  2,  3, 
 parent_id      = 1,  1,  2, 
 i_parent_start = 0,  12,  18, 
 j_parent_start = 0,  16,  31, 
 parent_grid_ratio = 1,  3,  3, 
 parent_time_step_ratio = 1,  3,  3, 
 FEEDBACK = 1,
 SMOOTH_OPTION = 2,
  NUM_METGRID_LEVELS = 52, 
/
 &physics
 mp_zero_out                         = 0, 
 MP_PHYSICS = 5,     5,     5,
 RA_LW_PHYSICS = 1,     1,     1,
 RA_SW_PHYSICS = 1,     1,     1,
 RADT = 10,    10,    10,
 SF_SFCLAY_PHYSICS = 1,     1,     1,
  SF_SURFACE_PHYSICS = 2,     2,     2,
 BL_PBL_PHYSICS = 1,     1,     1,
 BLDT = 0,     0,     0,
 CU_PHYSICS = 3,     3,     3,
 CUDT = 5,     5,     5,
 ISFFLX = 1,
 IFSNOW = 1,
 ICLOUD = 1,
 SURFACE_INPUT_SOURCE = 1,
  NUM_SOIL_LAYERS = 4,
 MAXIENS = 1,
 MAXENS = 3,
 MAXENS2 = 3,
 MAXENS3 = 16,
 ENSDIM = 144,
/
 &dynamics
 base_temp                           = 290.  
 DYN_OPT                             = 2,
 RK_ORD                              = 3,
 W_DAMPING                           = 0,
 DIFF_OPT                            = 1,
 KM_OPT                              = 4,
 DAMP_OPT                            = 0,
 ZDAMP                               = 5000.,  5000.,  5000.,
 DAMPCOEF                            = 0.2,    0.2,    0.2,
 KHDIF                               = 0,      0,      0,
 KVDIF                               = 0,      0,      0,
 SMDIV                               = 0.1,    0.1,    0.1,
 EMDIV                               = 0.01,   0.01,   0.01,
 EPSSM                               = 0.1,    0.1,    0.1,
 NON_HYDROSTATIC                     = .true., .true., .true.,
 TIME_STEP_SOUND                     = 4,     4,      4,
 H_MOM_ADV_ORDER                     = 5,      5,      5,
 V_MOM_ADV_ORDER                     = 3,      3,      3,
 H_SCA_ADV_ORDER                     = 5,      5,      5,
 V_SCA_ADV_ORDER                     = 3,      3,      3,
/
 &bdy_control
 SPEC_BDY_WIDTH = 5,
 SPEC_ZONE = 1,
 RELAX_ZONE = 4,
 SPECIFIED = .true., .false.,.false.,
 PERIODIC_X = .false.,.false.,.false.,
 SYMMETRIC_XS = .false.,.false.,.false.,
 SYMMETRIC_XE = .false.,.false.,.false.,
 OPEN_XS = .false.,.false.,.false.,
 OPEN_XE = .false.,.false.,.false.,
 PERIODIC_Y = .false.,.false.,.false.,
 SYMMETRIC_YS = .false.,.false.,.false.,
 SYMMETRIC_YE = .false.,.false.,.false.,
 OPEN_YS = .false.,.false.,.false.,
 OPEN_YE = .false.,.false.,.false.,
 NESTED = .false., .true., .true.,
/
 &namelist_quilt
 NIO_TASKS_PER_GROUP = 0,
 NIO_GROUPS = 1,
/
 &grib2
/
 &fdda
/  
